*SPEF "ieee 1481-1999"
*DESIGN "iiitb_sqd_1010"
*DATE "11:11:11 Fri 11 11, 1111"
*VENDOR "OpenRCX"
*PROGRAM "Parallel Extraction"
*VERSION "1.0"
*DESIGN_FLOW "NAME_SCOPE LOCAL" "PIN_CAP NONE"
*DIVIDER /
*DELIMITER :
*BUS_DELIMITER []
*T_UNIT 1 NS
*C_UNIT 1 PF
*R_UNIT 1 OHM
*L_UNIT 1 HENRY

*NAME_MAP
*3 clk
*4 din
*5 reset
*6 y
*7 _00_
*8 _01_
*9 _02_
*10 _03_
*11 _04_
*12 _05_
*13 _06_
*14 _07_
*15 _08_
*16 _09_
*17 _10_
*18 _11_
*19 _12_
*20 clknet_0_clk
*21 clknet_1_0__leaf_clk
*22 clknet_1_1__leaf_clk
*23 cst\[0\]
*24 cst\[1\]
*25 cst\[2\]
*26 cst\[3\]
*27 net1
*28 net2
*29 net3
*30 FILLER_0_109
*31 FILLER_0_113
*32 FILLER_0_119
*33 FILLER_0_124
*34 FILLER_0_26
*35 FILLER_0_29
*36 FILLER_0_3
*37 FILLER_0_41
*38 FILLER_0_53
*39 FILLER_0_57
*40 FILLER_0_69
*41 FILLER_0_81
*42 FILLER_0_85
*43 FILLER_0_9
*44 FILLER_0_97
*45 FILLER_10_104
*46 FILLER_10_116
*47 FILLER_10_124
*48 FILLER_10_15
*49 FILLER_10_27
*50 FILLER_10_29
*51 FILLER_10_3
*52 FILLER_10_37
*53 FILLER_10_42
*54 FILLER_10_62
*55 FILLER_10_74
*56 FILLER_10_82
*57 FILLER_10_85
*58 FILLER_10_92
*59 FILLER_11_105
*60 FILLER_11_111
*61 FILLER_11_113
*62 FILLER_11_125
*63 FILLER_11_15
*64 FILLER_11_27
*65 FILLER_11_3
*66 FILLER_11_39
*67 FILLER_11_51
*68 FILLER_11_55
*69 FILLER_11_57
*70 FILLER_11_69
*71 FILLER_11_81
*72 FILLER_11_93
*73 FILLER_12_109
*74 FILLER_12_121
*75 FILLER_12_125
*76 FILLER_12_15
*77 FILLER_12_27
*78 FILLER_12_29
*79 FILLER_12_3
*80 FILLER_12_41
*81 FILLER_12_53
*82 FILLER_12_65
*83 FILLER_12_77
*84 FILLER_12_83
*85 FILLER_12_85
*86 FILLER_12_97
*87 FILLER_13_105
*88 FILLER_13_111
*89 FILLER_13_113
*90 FILLER_13_125
*91 FILLER_13_15
*92 FILLER_13_27
*93 FILLER_13_3
*94 FILLER_13_39
*95 FILLER_13_43
*96 FILLER_13_47
*97 FILLER_13_55
*98 FILLER_13_57
*99 FILLER_13_69
*100 FILLER_13_81
*101 FILLER_13_93
*102 FILLER_14_100
*103 FILLER_14_112
*104 FILLER_14_124
*105 FILLER_14_15
*106 FILLER_14_27
*107 FILLER_14_29
*108 FILLER_14_3
*109 FILLER_14_41
*110 FILLER_14_53
*111 FILLER_14_65
*112 FILLER_14_77
*113 FILLER_14_83
*114 FILLER_14_85
*115 FILLER_15_105
*116 FILLER_15_111
*117 FILLER_15_113
*118 FILLER_15_125
*119 FILLER_15_15
*120 FILLER_15_27
*121 FILLER_15_3
*122 FILLER_15_39
*123 FILLER_15_51
*124 FILLER_15_55
*125 FILLER_15_57
*126 FILLER_15_69
*127 FILLER_15_81
*128 FILLER_15_93
*129 FILLER_16_109
*130 FILLER_16_121
*131 FILLER_16_125
*132 FILLER_16_15
*133 FILLER_16_27
*134 FILLER_16_29
*135 FILLER_16_3
*136 FILLER_16_41
*137 FILLER_16_53
*138 FILLER_16_65
*139 FILLER_16_77
*140 FILLER_16_83
*141 FILLER_16_85
*142 FILLER_16_97
*143 FILLER_17_105
*144 FILLER_17_111
*145 FILLER_17_113
*146 FILLER_17_125
*147 FILLER_17_15
*148 FILLER_17_27
*149 FILLER_17_3
*150 FILLER_17_39
*151 FILLER_17_51
*152 FILLER_17_55
*153 FILLER_17_57
*154 FILLER_17_69
*155 FILLER_17_81
*156 FILLER_17_93
*157 FILLER_18_109
*158 FILLER_18_117
*159 FILLER_18_125
*160 FILLER_18_15
*161 FILLER_18_27
*162 FILLER_18_29
*163 FILLER_18_3
*164 FILLER_18_41
*165 FILLER_18_53
*166 FILLER_18_65
*167 FILLER_18_77
*168 FILLER_18_83
*169 FILLER_18_85
*170 FILLER_18_97
*171 FILLER_19_105
*172 FILLER_19_111
*173 FILLER_19_113
*174 FILLER_19_125
*175 FILLER_19_15
*176 FILLER_19_27
*177 FILLER_19_3
*178 FILLER_19_39
*179 FILLER_19_51
*180 FILLER_19_55
*181 FILLER_19_57
*182 FILLER_19_69
*183 FILLER_19_81
*184 FILLER_19_93
*185 FILLER_1_103
*186 FILLER_1_111
*187 FILLER_1_113
*188 FILLER_1_125
*189 FILLER_1_15
*190 FILLER_1_3
*191 FILLER_1_36
*192 FILLER_1_48
*193 FILLER_1_57
*194 FILLER_1_67
*195 FILLER_1_79
*196 FILLER_1_91
*197 FILLER_20_109
*198 FILLER_20_113
*199 FILLER_20_124
*200 FILLER_20_15
*201 FILLER_20_27
*202 FILLER_20_29
*203 FILLER_20_3
*204 FILLER_20_41
*205 FILLER_20_53
*206 FILLER_20_57
*207 FILLER_20_69
*208 FILLER_20_81
*209 FILLER_20_85
*210 FILLER_20_97
*211 FILLER_2_109
*212 FILLER_2_121
*213 FILLER_2_125
*214 FILLER_2_15
*215 FILLER_2_27
*216 FILLER_2_29
*217 FILLER_2_3
*218 FILLER_2_40
*219 FILLER_2_52
*220 FILLER_2_64
*221 FILLER_2_76
*222 FILLER_2_85
*223 FILLER_2_97
*224 FILLER_3_105
*225 FILLER_3_111
*226 FILLER_3_113
*227 FILLER_3_125
*228 FILLER_3_15
*229 FILLER_3_27
*230 FILLER_3_3
*231 FILLER_3_47
*232 FILLER_3_55
*233 FILLER_3_57
*234 FILLER_3_69
*235 FILLER_3_81
*236 FILLER_3_93
*237 FILLER_4_104
*238 FILLER_4_111
*239 FILLER_4_123
*240 FILLER_4_15
*241 FILLER_4_27
*242 FILLER_4_29
*243 FILLER_4_3
*244 FILLER_4_41
*245 FILLER_4_65
*246 FILLER_4_77
*247 FILLER_4_83
*248 FILLER_4_85
*249 FILLER_4_92
*250 FILLER_4_98
*251 FILLER_5_105
*252 FILLER_5_111
*253 FILLER_5_113
*254 FILLER_5_125
*255 FILLER_5_15
*256 FILLER_5_27
*257 FILLER_5_3
*258 FILLER_5_39
*259 FILLER_5_51
*260 FILLER_5_55
*261 FILLER_5_57
*262 FILLER_5_69
*263 FILLER_5_81
*264 FILLER_5_93
*265 FILLER_6_109
*266 FILLER_6_121
*267 FILLER_6_125
*268 FILLER_6_15
*269 FILLER_6_27
*270 FILLER_6_29
*271 FILLER_6_3
*272 FILLER_6_41
*273 FILLER_6_49
*274 FILLER_6_72
*275 FILLER_6_85
*276 FILLER_6_97
*277 FILLER_7_105
*278 FILLER_7_111
*279 FILLER_7_113
*280 FILLER_7_125
*281 FILLER_7_15
*282 FILLER_7_27
*283 FILLER_7_3
*284 FILLER_7_39
*285 FILLER_7_51
*286 FILLER_7_55
*287 FILLER_7_57
*288 FILLER_7_69
*289 FILLER_7_81
*290 FILLER_7_93
*291 FILLER_8_103
*292 FILLER_8_115
*293 FILLER_8_123
*294 FILLER_8_15
*295 FILLER_8_27
*296 FILLER_8_29
*297 FILLER_8_3
*298 FILLER_8_41
*299 FILLER_8_53
*300 FILLER_8_65
*301 FILLER_8_73
*302 FILLER_8_79
*303 FILLER_8_83
*304 FILLER_8_85
*305 FILLER_9_104
*306 FILLER_9_113
*307 FILLER_9_125
*308 FILLER_9_15
*309 FILLER_9_27
*310 FILLER_9_3
*311 FILLER_9_39
*312 FILLER_9_51
*313 FILLER_9_55
*314 FILLER_9_57
*315 FILLER_9_69
*316 FILLER_9_75
*317 FILLER_9_92
*318 PHY_0
*319 PHY_1
*320 PHY_10
*321 PHY_11
*322 PHY_12
*323 PHY_13
*324 PHY_14
*325 PHY_15
*326 PHY_16
*327 PHY_17
*328 PHY_18
*329 PHY_19
*330 PHY_2
*331 PHY_20
*332 PHY_21
*333 PHY_22
*334 PHY_23
*335 PHY_24
*336 PHY_25
*337 PHY_26
*338 PHY_27
*339 PHY_28
*340 PHY_29
*341 PHY_3
*342 PHY_30
*343 PHY_31
*344 PHY_32
*345 PHY_33
*346 PHY_34
*347 PHY_35
*348 PHY_36
*349 PHY_37
*350 PHY_38
*351 PHY_39
*352 PHY_4
*353 PHY_40
*354 PHY_41
*355 PHY_5
*356 PHY_6
*357 PHY_7
*358 PHY_8
*359 PHY_9
*360 TAP_42
*361 TAP_43
*362 TAP_44
*363 TAP_45
*364 TAP_46
*365 TAP_47
*366 TAP_48
*367 TAP_49
*368 TAP_50
*369 TAP_51
*370 TAP_52
*371 TAP_53
*372 TAP_54
*373 TAP_55
*374 TAP_56
*375 TAP_57
*376 TAP_58
*377 TAP_59
*378 TAP_60
*379 TAP_61
*380 TAP_62
*381 TAP_63
*382 TAP_64
*383 TAP_65
*384 TAP_66
*385 TAP_67
*386 TAP_68
*387 TAP_69
*388 TAP_70
*389 TAP_71
*390 TAP_72
*391 TAP_73
*392 TAP_74
*393 TAP_75
*394 TAP_76
*395 TAP_77
*396 TAP_78
*397 TAP_79
*398 TAP_80
*399 TAP_81
*400 TAP_82
*401 TAP_83
*402 TAP_84
*403 TAP_85
*404 TAP_86
*405 TAP_87
*406 _14_
*407 _15_
*408 _16_
*409 _17_
*410 _18_
*411 _20_
*412 _21_
*413 _22_
*414 _23_
*415 _24_
*416 _25_
*417 _26_
*418 _27_
*419 _28_
*420 _29_
*421 _30_
*422 clkbuf_0_clk
*423 clkbuf_1_0__f_clk
*424 clkbuf_1_1__f_clk
*425 input1
*426 input2
*427 output3

*PORTS
clk I
din I
reset I
y O

*D_NET *3 0.00447094
*CONN
*P clk I
*I *422:A I *D sky130_fd_sc_hd__clkbuf_16
*CAP
1 clk 0.00134149
2 *422:A 0.00089398
3 *3:10 0.00223547
4 *422:A *419:D 0
5 *422:A *20:8 0
6 *422:A *24:12 0
7 *422:A *24:27 0
*RES
1 clk *3:10 37.75 
2 *3:10 *422:A 33.4786 
*END

*D_NET *4 0.00109689
*CONN
*P din I
*I *425:A I *D sky130_fd_sc_hd__dlymetal6s2s_1
*CAP
1 din 0.000548446
2 *425:A 0.000548446
*RES
1 din *425:A 25.5527 
*END

*D_NET *5 0.00138565
*CONN
*P reset I
*I *426:A I *D sky130_fd_sc_hd__clkbuf_1
*CAP
1 reset 0.000692823
2 *426:A 0.000692823
*RES
1 reset *426:A 29.0857 
*END

*D_NET *6 0.00104356
*CONN
*P y O
*I *427:X O *D sky130_fd_sc_hd__buf_2
*CAP
1 y 0.000521782
2 *427:X 0.000521782
*RES
1 *427:X y 24.9456 
*END

*D_NET *7 0.00279444
*CONN
*I *421:D I *D sky130_fd_sc_hd__dfxtp_1
*I *410:X O *D sky130_fd_sc_hd__clkbuf_1
*CAP
1 *421:D 0
2 *410:X 0.00139722
3 *7:15 0.00139722
4 *7:15 *406:B 0
5 *7:15 *409:A 0
6 *7:15 *409:B 0
7 *7:15 *420:CLK 0
8 *7:15 *15:9 0
9 *7:15 *22:9 0
*RES
1 *410:X *7:15 48.4429 
2 *7:15 *421:D 9.3 
*END

*D_NET *8 0.00426375
*CONN
*I *418:D I *D sky130_fd_sc_hd__dfxtp_1
*I *412:X O *D sky130_fd_sc_hd__clkbuf_1
*CAP
1 *418:D 0.0013966
2 *412:X 0.000735277
3 *8:16 0.00213187
4 *418:D *418:CLK 0
5 *418:D *24:12 0
6 *8:16 *407:C 0
7 *8:16 *408:A2 0
8 *8:16 *412:A 0
9 *8:16 *24:27 0
*RES
1 *412:X *8:16 43.3714 
2 *8:16 *418:D 38.4473 
*END

*D_NET *9 0.00164041
*CONN
*I *419:D I *D sky130_fd_sc_hd__dfxtp_1
*I *416:X O *D sky130_fd_sc_hd__clkbuf_1
*CAP
1 *419:D 0.000820204
2 *416:X 0.000820204
3 *419:D *423:A 0
4 *419:D *20:8 0
5 *419:D *24:27 0
6 *422:A *419:D 0
*RES
1 *416:X *419:D 46.033 
*END

*D_NET *10 0.00135529
*CONN
*I *420:D I *D sky130_fd_sc_hd__dfxtp_1
*I *414:X O *D sky130_fd_sc_hd__clkbuf_1
*CAP
1 *420:D 0.000677643
2 *414:X 0.000677643
3 *420:D *408:B1 0
4 *420:D *13:11 0
5 *420:D *16:10 0
6 *420:D *27:11 0
*RES
1 *414:X *420:D 42.6402 
*END

*D_NET *11 0.00189569
*CONN
*I *417:D I *D sky130_fd_sc_hd__dfxtp_1
*I *408:X O *D sky130_fd_sc_hd__o32a_1
*CAP
1 *417:D 0.000947843
2 *408:X 0.000947843
3 *417:D *407:B 0
4 *417:D *417:CLK 0
5 *417:D *22:6 0
*RES
1 *408:X *417:D 49.0687 
*END

*D_NET *12 0.00316596
*CONN
*I *409:B I *D sky130_fd_sc_hd__and2_1
*I *408:A2 I *D sky130_fd_sc_hd__o32a_1
*I *411:B I *D sky130_fd_sc_hd__and3_1
*CAP
1 *409:B 0.00066591
2 *408:A2 0.000917069
3 *411:B 0
4 *12:5 0.00158298
5 *408:A2 *408:A3 0
6 *408:A2 *408:B1 0
7 *408:A2 *16:10 0
8 *408:A2 *28:11 0
9 *409:B *408:B1 0
10 *409:B *16:10 0
11 *7:15 *409:B 0
12 *8:16 *408:A2 0
*RES
1 *411:B *12:5 13.8 
2 *12:5 *408:A2 33.6393 
3 *12:5 *409:B 28.5679 
*END

*D_NET *13 0.00559753
*CONN
*I *415:C I *D sky130_fd_sc_hd__and3_1
*I *408:B1 I *D sky130_fd_sc_hd__o32a_1
*I *406:X O *D sky130_fd_sc_hd__or2_1
*CAP
1 *415:C 0
2 *408:B1 0.00140759
3 *406:X 0.00139118
4 *13:11 0.00279877
5 *408:B1 *408:A3 0
6 *408:B1 *416:A 0
7 *408:B1 *16:10 0
8 *408:B1 *23:11 0
9 *13:11 *406:B 0
10 *13:11 *18:8 0
11 *13:11 *27:11 0
12 *408:A2 *408:B1 0
13 *409:B *408:B1 0
14 *420:D *408:B1 0
15 *420:D *13:11 0
*RES
1 *406:X *13:11 48.9607 
2 *13:11 *408:B1 49.3 
3 *13:11 *415:C 9.3 
*END

*D_NET *14 0.00116698
*CONN
*I *408:B2 I *D sky130_fd_sc_hd__o32a_1
*I *407:X O *D sky130_fd_sc_hd__or3_1
*CAP
1 *408:B2 0.000583488
2 *407:X 0.000583488
3 *408:B2 *407:B 0
4 *408:B2 *407:C 0
5 *408:B2 *28:11 0
*RES
1 *407:X *408:B2 39.8857 
*END

*D_NET *15 0.00227304
*CONN
*I *410:A I *D sky130_fd_sc_hd__clkbuf_1
*I *409:X O *D sky130_fd_sc_hd__and2_1
*CAP
1 *410:A 0
2 *409:X 0.00113652
3 *15:9 0.00113652
4 *15:9 *406:B 0
5 *7:15 *15:9 0
*RES
1 *409:X *15:9 43.0143 
2 *15:9 *410:A 9.3 
*END

*D_NET *16 0.00203932
*CONN
*I *413:B I *D sky130_fd_sc_hd__and3_1
*I *411:A I *D sky130_fd_sc_hd__and3_1
*I *415:A I *D sky130_fd_sc_hd__and3_1
*CAP
1 *413:B 0.000273586
2 *411:A 8.40653e-05
3 *415:A 0.000662009
4 *16:10 0.00101966
5 *411:A *411:C 0
6 *411:A *412:A 0
7 *413:B *412:A 0
8 *16:10 *420:CLK 0
9 *16:10 *18:8 0
10 *16:10 *23:11 0
11 *408:A2 *16:10 0
12 *408:B1 *16:10 0
13 *409:B *16:10 0
14 *420:D *16:10 0
*RES
1 *415:A *16:10 33.2286 
2 *16:10 *411:A 11.0857 
3 *16:10 *413:B 15.1036 
*END

*D_NET *17 0.000829957
*CONN
*I *412:A I *D sky130_fd_sc_hd__clkbuf_1
*I *411:X O *D sky130_fd_sc_hd__and3_1
*CAP
1 *412:A 0.000414979
2 *411:X 0.000414979
3 *411:A *412:A 0
4 *413:B *412:A 0
5 *8:16 *412:A 0
*RES
1 *411:X *412:A 27.2607 
*END

*D_NET *18 0.00206884
*CONN
*I *414:A I *D sky130_fd_sc_hd__clkbuf_1
*I *413:X O *D sky130_fd_sc_hd__and3_1
*CAP
1 *414:A 0
2 *413:X 0.00103442
3 *18:8 0.00103442
4 *18:8 *420:CLK 0
5 *13:11 *18:8 0
6 *16:10 *18:8 0
*RES
1 *413:X *18:8 41.8 
2 *18:8 *414:A 9.3 
*END

*D_NET *19 0.00189863
*CONN
*I *416:A I *D sky130_fd_sc_hd__clkbuf_1
*I *415:X O *D sky130_fd_sc_hd__and3_1
*CAP
1 *416:A 0.000949317
2 *415:X 0.000949317
3 *416:A *23:11 0
4 *408:B1 *416:A 0
*RES
1 *415:X *416:A 38.475 
*END

*D_NET *20 0.00222826
*CONN
*I *424:A I *D sky130_fd_sc_hd__clkbuf_16
*I *423:A I *D sky130_fd_sc_hd__clkbuf_16
*I *422:X O *D sky130_fd_sc_hd__clkbuf_16
*CAP
1 *424:A 0
2 *423:A 0.000505046
3 *422:X 0.000609085
4 *20:8 0.00111413
5 *423:A *24:12 0
6 *423:A *24:27 0
7 *419:D *423:A 0
8 *419:D *20:8 0
9 *422:A *20:8 0
*RES
1 *422:X *20:8 26.925 
2 *20:8 *423:A 24.8357 
3 *20:8 *424:A 13.8 
*END

*D_NET *21 0.00122851
*CONN
*I *419:CLK I *D sky130_fd_sc_hd__dfxtp_1
*I *418:CLK I *D sky130_fd_sc_hd__dfxtp_1
*I *423:X O *D sky130_fd_sc_hd__clkbuf_16
*CAP
1 *419:CLK 0.000381994
2 *418:CLK 0.000232261
3 *423:X 0
4 *21:5 0.000614255
5 *418:CLK *24:12 0
6 *418:D *418:CLK 0
*RES
1 *423:X *21:5 13.8 
2 *21:5 *418:CLK 18.8536 
3 *21:5 *419:CLK 22.1036 
*END

*D_NET *22 0.00264491
*CONN
*I *417:CLK I *D sky130_fd_sc_hd__dfxtp_1
*I *420:CLK I *D sky130_fd_sc_hd__dfxtp_1
*I *421:CLK I *D sky130_fd_sc_hd__dfxtp_1
*I *424:X O *D sky130_fd_sc_hd__clkbuf_16
*CAP
1 *417:CLK 0.000189848
2 *420:CLK 0.000174608
3 *421:CLK 2.0535e-05
4 *424:X 0.000419809
5 *22:9 0.000712797
6 *22:6 0.00112731
7 *22:9 *409:A 0
8 *417:D *417:CLK 0
9 *417:D *22:6 0
10 *7:15 *420:CLK 0
11 *7:15 *22:9 0
12 *16:10 *420:CLK 0
13 *18:8 *420:CLK 0
*RES
1 *424:X *22:6 23.3357 
2 *22:6 *22:9 15.3036 
3 *22:9 *421:CLK 9.72857 
4 *22:9 *420:CLK 22.1393 
5 *22:6 *417:CLK 18.175 
*END

*D_NET *23 0.00442143
*CONN
*I *406:A I *D sky130_fd_sc_hd__or2_1
*I *417:Q O *D sky130_fd_sc_hd__dfxtp_1
*CAP
1 *406:A 0.00095808
2 *417:Q 0.00125264
3 *23:11 0.00221072
4 *406:A *406:B 0
5 *23:11 *27:11 0
6 *23:11 *27:20 0
7 *408:B1 *23:11 0
8 *416:A *23:11 0
9 *16:10 *23:11 0
*RES
1 *417:Q *23:11 39.9429 
2 *23:11 *406:A 35.3357 
*END

*D_NET *24 0.00460736
*CONN
*I *413:A I *D sky130_fd_sc_hd__and3_1
*I *407:A I *D sky130_fd_sc_hd__or3_1
*I *418:Q O *D sky130_fd_sc_hd__dfxtp_1
*CAP
1 *413:A 0
2 *407:A 0
3 *418:Q 0.000790186
4 *24:27 0.0015135
5 *24:12 0.00230368
6 *24:27 *25:7 0
7 *24:27 *27:20 0
8 *418:CLK *24:12 0
9 *418:D *24:12 0
10 *419:D *24:27 0
11 *422:A *24:12 0
12 *422:A *24:27 0
13 *423:A *24:12 0
14 *423:A *24:27 0
15 *8:16 *24:27 0
*RES
1 *418:Q *24:12 30.8536 
2 *24:12 *407:A 13.8 
3 *24:12 *24:27 45.5357 
4 *24:27 *413:A 9.3 
*END

*D_NET *25 0.0031321
*CONN
*I *411:C I *D sky130_fd_sc_hd__and3_1
*I *408:A3 I *D sky130_fd_sc_hd__o32a_1
*I *419:Q O *D sky130_fd_sc_hd__dfxtp_1
*CAP
1 *411:C 0.000239883
2 *408:A3 0.000592041
3 *419:Q 0.000734127
4 *25:7 0.00156605
5 *408:A2 *408:A3 0
6 *408:B1 *408:A3 0
7 *411:A *411:C 0
8 *24:27 *25:7 0
*RES
1 *419:Q *25:7 29.1214 
2 *25:7 *408:A3 26.5143 
3 *25:7 *411:C 19.0143 
*END

*D_NET *26 0.00378275
*CONN
*I *406:B I *D sky130_fd_sc_hd__or2_1
*I *409:A I *D sky130_fd_sc_hd__and2_1
*I *420:Q O *D sky130_fd_sc_hd__dfxtp_1
*CAP
1 *406:B 0.00148798
2 *409:A 0.000259647
3 *420:Q 0.000143745
4 *26:7 0.00189138
5 *406:A *406:B 0
6 *7:15 *406:B 0
7 *7:15 *409:A 0
8 *13:11 *406:B 0
9 *15:9 *406:B 0
10 *22:9 *409:A 0
*RES
1 *420:Q *26:7 16.8 
2 *26:7 *409:A 28.5679 
3 *26:7 *406:B 46.6036 
*END

*D_NET *27 0.0102144
*CONN
*I *413:C I *D sky130_fd_sc_hd__and3_1
*I *407:C I *D sky130_fd_sc_hd__or3_1
*I *415:B I *D sky130_fd_sc_hd__and3_1
*I *425:X O *D sky130_fd_sc_hd__dlymetal6s2s_1
*CAP
1 *413:C 9.41189e-06
2 *407:C 0.00150458
3 *415:B 0
4 *425:X 0.00156066
5 *27:20 0.00246689
6 *27:11 0.00203253
7 *27:7 0.00264029
8 *407:C *407:B 0
9 *408:B2 *407:C 0
10 *420:D *27:11 0
11 *8:16 *407:C 0
12 *13:11 *27:11 0
13 *23:11 *27:11 0
14 *23:11 *27:20 0
15 *24:27 *27:20 0
*RES
1 *425:X *27:7 46.3714 
2 *27:7 *27:11 28.9464 
3 *27:11 *415:B 9.3 
4 *27:11 *27:20 25.7679 
5 *27:20 *407:C 45.5321 
6 *27:20 *413:C 13.9964 
*END

*D_NET *28 0.00778148
*CONN
*I *408:A1 I *D sky130_fd_sc_hd__o32a_1
*I *407:B I *D sky130_fd_sc_hd__or3_1
*I *426:X O *D sky130_fd_sc_hd__clkbuf_1
*CAP
1 *408:A1 0
2 *407:B 0.000617392
3 *426:X 0
4 *28:11 0.00185377
5 *28:6 0.00327335
6 *28:5 0.00203697
7 *28:6 *29:10 0
8 *407:C *407:B 0
9 *408:A2 *28:11 0
10 *408:B2 *407:B 0
11 *408:B2 *28:11 0
12 *417:D *407:B 0
*RES
1 *426:X *28:5 13.8 
2 *28:5 *28:6 46.2679 
3 *28:6 *28:11 30.3036 
4 *28:11 *407:B 31.4429 
5 *28:11 *408:A1 9.3 
*END

*D_NET *29 0.00238898
*CONN
*I *427:A I *D sky130_fd_sc_hd__buf_2
*I *421:Q O *D sky130_fd_sc_hd__dfxtp_1
*CAP
1 *427:A 0
2 *421:Q 0.00119449
3 *29:10 0.00119449
4 *28:6 *29:10 0
*RES
1 *421:Q *29:10 44.7643 
2 *29:10 *427:A 9.3 
*END
